%mem=2gb
%NProcShared=20
#n B3LYP/6-31G(d) Opt Pop=ESP scf=(direct,tight)

 2Melf

0 1
N        518.47431      678.17127      751.05893
C        517.12239      678.27263      750.95808
N        516.27636      677.43918      751.73501
N        516.57807      679.17761      750.10536
C        517.37818      679.98043      749.35507
N        516.81515      680.93020      748.46353
N        518.72733      679.87252      749.46062
C        519.28064      678.96839      750.31198
N        520.69245      678.84496      750.42940
C        516.81713      676.47024      752.66333
H        515.25384      677.53021      751.63330
C        521.62110      679.65506      749.66768
H        521.07546      678.14802      751.08596
O        522.42712      678.81627      748.88948
H        522.25347      680.22611      750.38297
H        521.09095      680.37272      749.00488
H        523.08706      679.40596      748.44024
C        515.38271      681.07801      748.32486
H        517.44449      681.52707      747.90508
O        515.10166      682.07931      747.38697
H        514.95104      681.35956      749.31137
H        514.95081      680.11212      747.97964
H        514.11230      682.13931      747.33682
C        514.09012      671.23628      755.12602
N        513.15045      671.25725      756.18925
C        512.39680      670.07722      756.55323
O        511.54725      670.37391      757.62628
H        511.05740      669.53500      757.82933
H        513.10574      669.27243      756.85058
H        511.79174      669.75027      755.67813
H        513.00404      672.13522      756.71074
N        514.30752      670.09635      754.41817
C        515.20673      670.08260      753.40148
N        515.42622      668.88580      752.67116
H        514.89431      668.03931      752.92559
C        516.37833      668.82993      751.58335
H        517.38882      669.08558      751.97373
O        516.39790      667.53894      751.04098
H        517.06662      667.55873      750.30792
H        516.07523      669.55915      750.79911
N        515.89034      671.21615      753.09227
C        515.67967      672.35880      753.79477
N        516.40422      673.53412      753.45533
C        516.24909      674.78913      754.16746
H        517.21648      675.07022      754.64574
H        515.52944      674.69798      755.00657
O        515.75400      675.78418      753.29239
H        517.07409      673.49034      752.67317
N        514.77768      672.36396      754.81200
H        517.42451      677.01672      753.42039
H        517.45687      675.76078      752.09180

