%mem=2gb
%NProcShared=20
#n B3LYP/6-31G(d) Opt Pop=ESP scf=(direct,tight)

 4MELF

0 1
N        518.25665      678.09589      751.26228
C        516.95791      678.11114      751.66458
N        516.45402      677.10213      752.52537
N        516.13606      679.10598      751.24534
C        516.60452      680.08559      750.42887
N        515.74260      681.11754      749.97448
N        517.90370      680.06916      750.03742
C        518.73498      679.07573      750.45175
N        520.09732      679.04897      750.04463
C        517.29307      676.03042      753.01466
H        515.46492      677.14362      752.81557
C        520.70529      680.11090      749.26893
H        520.68567      678.25159      750.32982
O        521.13329      679.59075      748.02323
H        521.53731      680.52842      749.88401
H        519.98798      680.93568      749.07660
C        514.35695      681.17469      750.38656
H        516.11401      681.83610      749.33427
O        513.71921      682.26072      749.74070
H        514.34003      681.26818      751.49787
H        513.85500      680.23005      750.08305
C        515.39793      670.46561      755.53955
N        514.98142      670.33149      756.88955
C        514.32844      669.13017      757.36204
O        514.02275      669.26480      758.72208
H        513.56946      668.42256      758.98684
H        515.01321      668.26488      757.21779
H        513.39050      668.97704      756.78258
H        515.14657      671.11156      757.54413
N        515.19608      669.45769      754.65021
C        515.59237      669.59412      753.35907
N        515.37655      668.53437      752.44035
H        514.91853      667.67101      752.77056
C        515.78536      668.64068      751.05673
H        516.88624      668.79945      751.01610
O        515.45612      667.46143      750.37693
H        515.75999      667.58962      749.44090
H        515.25698      669.50094      750.58826
N        516.19164      670.74631      752.95691
C        516.39800      671.75732      753.83936
N        517.01757      672.95870      753.39821
C        517.28002      674.07811      754.28230
H        518.37795      674.27054      754.32590
H        516.98515      673.85402      755.32784
O        516.52937      675.20093      753.86509
H        517.28691      673.04083      752.40650
N        515.99900      671.61196      755.13088
H        518.13950      676.47953      753.58223
H        517.67292      675.45610      752.13918
O        506.15344      678.17830      750.29110
H        506.38058      677.34259      750.77585
H        506.12442      680.40430      749.23839
H        508.13756      678.44016      749.80286
C        507.30787      678.97049      750.32145
N        507.05502      680.22448      749.64561
H        506.45149      685.37906      745.81601
O        507.34291      685.11577      746.16408
H        506.44977      684.04997      747.67657
C        508.06021      681.21993      749.53325
N        507.78452      682.38792      748.89936
H        507.58869      679.17966      751.37805
C        507.17299      684.88183      747.53346
N        509.29687      681.01514      750.05806
C        508.73696      683.35173      748.78903
N        508.46034      684.57833      748.12488
H        506.77076      685.79584      748.02370
C        510.25416      681.97209      749.95443
N        509.96924      683.13970      749.31898
H        509.20787      685.28574      748.05996
N        511.54100      681.73784      750.51150
H        511.71545      680.83356      750.97456
C        512.60836      682.72553      750.48416
H        512.90063      683.00504      751.52113
H        512.26986      683.66914      750.00977
H        522.16111      688.29236      746.29663
O        523.02240      687.86863      746.04443
H        522.06086      686.08497      745.67381
C        522.87434      686.50134      746.30867
H        524.91858      686.34647      745.65575
N        524.10945      685.81121      746.00646
H        522.63310      686.35376      747.38543
C        524.23911      684.41050      746.19395
N        523.19245      683.67505      746.65283
N        525.42052      683.80036      745.92090
O        528.31356      681.97369      744.07492
H        529.14231      682.44374      743.79682
H        527.76165      683.60086      745.20144
C        523.32667      682.33817      746.84530
C        525.56291      682.46124      746.10842
C        527.95753      682.51277      745.31651
H        521.32870      682.06174      747.48731
N        522.22868      681.58438      747.33071
N        524.51432      681.73472      746.57439
N        526.79451      681.81109      745.82079
C        522.36016      680.16921      747.61980
H        526.86526      680.79390      745.97499
H        528.79083      682.37222      746.03987
H        523.17070      679.97093      748.35736

