%mem=2gb
%NProcShared=20
#n B3LYP/6-31G(d) Opt Pop=ESP scf=(direct,tight)

 3MELF

0 1
N        518.15665      677.98821      751.27324
C        516.87646      678.06594      751.72392
N        516.38324      677.12821      752.66754
N        516.05878      679.04307      751.25828
C        516.51175      679.94028      750.34399
N        515.65473      680.95734      749.84848
N        517.79074      679.85610      749.89652
C        518.61860      678.88186      750.36063
N        519.96089      678.78440      749.90115
C        517.21285      676.06057      753.18133
H        515.40465      677.20732      752.98445
C        520.53093      679.69717      748.93123
H        520.55863      678.03187      750.27520
O        520.95389      678.96981      747.81282
H        521.40234      680.20491      749.40089
H        519.79608      680.46735      748.61159
H        521.39962      679.62167      747.21158
C        514.29387      681.08739      750.32240
H        516.01223      681.61360      749.13748
O        513.65341      682.14335      749.63109
H        514.33681      681.26448      751.42271
H        513.75361      680.13792      750.11531
C        515.25665      670.50556      755.62303
N        514.78930      670.34533      756.95334
C        514.12369      669.13308      757.37801
O        513.76564      669.24088      758.72759
H        513.30753      668.39152      758.95925
H        514.81711      668.27301      757.24388
H        513.20927      668.98749      756.76026
H        514.92630      671.11356      757.62807
N        515.09228      669.51327      754.70858
C        515.53733      669.67387      753.43639
N        515.36114      668.63015      752.49113
H        514.89370      667.75967      752.78769
C        515.82378      668.76235      751.12675
H        516.92484      668.92506      751.13242
O        515.52595      667.59447      750.41361
H        515.86767      667.73960      749.49321
H        515.31124      669.62927      750.65301
N        516.14782      670.83444      753.07854
C        516.31718      671.83003      753.98605
N        516.95107      673.03926      753.58949
C        517.18422      674.14405      754.50174
H        518.27898      674.33786      754.58796
H        516.85172      673.90079      755.53158
O        516.45431      675.27982      754.08205
H        517.25782      673.13460      752.61015
N        515.86956      671.66084      755.25858
H        518.08441      676.51272      753.70642
H        517.55723      675.44669      752.31878
O        506.04761      678.21766      750.51723
H        506.27703      677.39410      751.02132
H        506.02225      680.40560      749.38708
H        508.02251      678.43479      749.97285
C        507.21263      678.99435      750.49211
N        506.95990      680.22729      749.77849
H        506.33433      685.24816      745.77686
O        507.23018      684.98304      746.11194
H        506.36040      683.98703      747.68441
C        507.97559      681.20324      749.60584
N        507.70122      682.35073      748.93498
H        507.52181      679.23629      751.53366
C        507.09175      684.80183      747.49279
N        509.22152      680.99961      750.10849
C        508.66458      683.29489      748.76514
N        508.38918      684.50027      748.06275
H        506.71546      685.73922      747.95893
C        510.18990      681.93674      749.94497
N        509.90658      683.08366      749.27226
H        509.14500      685.19324      747.95327
N        511.48630      681.70364      750.47963
H        511.65603      680.81829      750.97945
C        512.57104      682.66712      750.37797
H        512.89394      682.99123      751.39270
H        512.23878      683.59331      749.86630

